# generated using pymatgen
data_BaTiO3
_symmetry_space_group_name_H-M   'P 1'
_cell_length_a   4.07715918
_cell_length_b   4.07715918
_cell_length_c   4.07715917
_cell_angle_alpha   89.69902153
_cell_angle_beta   89.69902161
_cell_angle_gamma   89.69902150
_symmetry_Int_Tables_number   1
_chemical_formula_structural   BaTiO3
_chemical_formula_sum   'Ba1 Ti1 O3'
_cell_volume   67.77274675
_cell_formula_units_Z   1
loop_
 _symmetry_equiv_pos_site_id
 _symmetry_equiv_pos_as_xyz
  1  'x, y, z'
loop_
 _atom_site_type_symbol
 _atom_site_label
 _atom_site_symmetry_multiplicity
 _atom_site_fract_x
 _atom_site_fract_y
 _atom_site_fract_z
 _atom_site_occupancy
  O  O0  1  0.524065  0.012736  0.012736  1
  O  O1  1  0.012736  0.012736  0.524065  1
  O  O2  1  0.012736  0.524065  0.012736  1
  Ti  Ti3  1  0.982209  0.982209  0.982209  1
  Ba  Ba4  1  0.497155  0.497155  0.497155  1
